[Format]      =  4.0
[Frequency]   =  0
[Precision]   =  1e-008
[MinAngle]    =  30
[DoSmartMesh] =  1
[Depth]       =  50
[LengthUnits] =  millimeters
[ProblemType] =  planar
[Coordinates] =  cartesian
[ACSolver]    =  0
[PrevType]    =  0
[PrevSoln]    =  ""
[Comment]     =  "Add comments here."
[PointProps]   = 0
[BdryProps]   = 1
  <BeginBdry>
    <BdryName> = "Bound1"
    <BdryType> = 0
    <A_0> = 0
    <A_1> = 0
    <A_2> = 0
    <Phi> = 0
    <c0> = 0
    <c0i> = 0
    <c1> = 0
    <c1i> = 0
    <Mu_ssd> = 0
    <Sigma_ssd> = 0
    <innerangle> = 0
    <outerangle> = 0
  <EndBdry>
[BlockProps]  = 4
  <BeginBlock>
    <BlockName> = "Air"
    <Mu_x> = 1
    <Mu_y> = 1
    <H_c> = 0
    <H_cAngle> = 0
    <J_re> = 0
    <J_im> = 0
    <Sigma> = 0
    <d_lam> = 0
    <Phi_h> = 0
    <Phi_hx> = 0
    <Phi_hy> = 0
    <LamType> = 0
    <LamFill> = 1
    <NStrands> = 0
    <WireD> = 0
    <BHPoints> = 0
  <EndBlock>
  <BeginBlock>
    <BlockName> = "Pure Iron"
    <Mu_x> = 14872
    <Mu_y> = 14872
    <H_c> = 0
    <H_cAngle> = 0
    <J_re> = 0
    <J_im> = 0
    <Sigma> = 10.44
    <d_lam> = 0
    <Phi_h> = 0
    <Phi_hx> = 0
    <Phi_hy> = 0
    <LamType> = 0
    <LamFill> = 1
    <NStrands> = 0
    <WireD> = 0
    <BHPoints> = 0
  <EndBlock>
  <BeginBlock>
    <BlockName> = "Copper"
    <Mu_x> = 1
    <Mu_y> = 1
    <H_c> = 0
    <H_cAngle> = 0
    <J_re> = 0
    <J_im> = 0
    <Sigma> = 58
    <d_lam> = 0
    <Phi_h> = 0
    <Phi_hx> = 0
    <Phi_hy> = 0
    <LamType> = 0
    <LamFill> = 1
    <NStrands> = 0
    <WireD> = 0
    <BHPoints> = 0
  <EndBlock>
  <BeginBlock>
    <BlockName> = "NdFeB 37 MGOe"
    <Mu_x> = 1.048
    <Mu_y> = 1.048
    <H_c> = 950000
    <H_cAngle> = 0
    <J_re> = 0
    <J_im> = 0
    <Sigma> = 0.66700000000000004
    <d_lam> = 0
    <Phi_h> = 0
    <Phi_hx> = 0
    <Phi_hy> = 0
    <LamType> = 0
    <LamFill> = 1
    <NStrands> = 0
    <WireD> = 0
    <BHPoints> = 0
  <EndBlock>
[CircuitProps]  = 3
  <BeginCircuit>
    <CircuitName> = "C"
    <TotalAmps_re> = 0
    <TotalAmps_im> = 0
    <CircuitType> = 1
  <EndCircuit>
  <BeginCircuit>
    <CircuitName> = "A"
    <TotalAmps_re> = 0
    <TotalAmps_im> = 0
    <CircuitType> = 1
  <EndCircuit>
  <BeginCircuit>
    <CircuitName> = "B"
    <TotalAmps_re> = 0
    <TotalAmps_im> = 0
    <CircuitType> = 1
  <EndCircuit>
[NumPoints] = 71
35	0	0	0
31.185228346592876	15.889667490884136	0	0
31.685228346592876	15.889667490884136	0	0
35.185228346592879	11.889667490884136	0	0
55.185228346592879	11.889667490884136	0	0
51.528511525174103	29.749999999999996	0	0
31.185228346592876	-15.889667490884136	0	0
31.685228346592876	-15.889667490884136	0	0
35.185228346592879	-11.889667490884136	0	0
55.185228346592879	-11.889667490884136	0	0
51.528511525174103	-29.749999999999996	0	0
17.500000000000004	30.310889132455351	0	0
1.8317584685030397	34.952033716410085	0	0
2.0817584685030397	35.385046418302302	0	0
7.2958600836407967	36.416135331547842	0	0
17.2958600836408	53.736643407236613	0	0
1.4210854715202004e-014	59.5	0	0
29.353469878089843	19.062366225525949	0	0
29.603469878089843	19.495378927418166	0	0
27.88936826295209	24.526467840663706	0	0
37.88936826295209	41.846975916352477	0	0
-17.499999999999993	30.310889132455358	0	0
-29.353469878089836	19.062366225525956	0	0
-29.603469878089832	19.495378927418173	0	0
-27.889368262952082	24.526467840663713	0	0
-37.889368262952075	41.846975916352491	0	0
-51.528511525174089	29.750000000000018	0	0
-1.8317584685030308	34.952033716410085	0	0
-2.0817584685030273	35.385046418302309	0	0
-7.2958600836407861	36.416135331547849	0	0
-17.295860083640786	53.736643407236613	0	0
-35	1.4210854715202004e-014	0	0
-31.185228346592879	-15.889667490884127	0	0
-31.685228346592879	-15.889667490884124	0	0
-35.185228346592886	-11.889667490884126	0	0
-55.185228346592879	-11.889667490884111	0	0
-51.52851152517411	-29.749999999999972	0	0
-31.185228346592872	15.889667490884143	0	0
-31.685228346592872	15.88966749088415	0	0
-35.185228346592879	11.889667490884149	0	0
-55.185228346592872	11.889667490884149	0	0
-17.500000000000014	-30.310889132455344	0	0
-1.8317584685030504	-34.952033716410085	0	0
-2.0817584685030521	-35.385046418302302	0	0
-7.2958600836408092	-36.416135331547842	0	0
-17.295860083640822	-53.736643407236599	0	0
-3.907985046680551e-014	-59.5	0	0
-29.353469878089847	-19.062366225525942	0	0
-29.603469878089854	-19.495378927418152	0	0
-27.8893682629521	-24.526467840663699	0	0
-37.889368262952104	-41.846975916352463	0	0
17.499999999999979	-30.310889132455365	0	0
29.353469878089829	-19.062366225525967	0	0
29.603469878089825	-19.495378927418184	0	0
27.889368262952075	-24.526467840663724	0	0
37.889368262952047	-41.846975916352505	0	0
1.8317584685030219	-34.952033716410085	0	0
2.0817584685030113	-35.385046418302309	0	0
7.2958600836407737	-36.416135331547849	0	0
17.295860083640765	-53.736643407236627	0	0
75	0	0	0
-75	9.1848509936051487e-015	0	0
-34.75	1.4210854715202004e-014	0	0
34.75	-1.8466502342239056e-014	0	0
0	0	0	10
-10.000000000000044	1.0547118733938987e-014	0	10
10.000000000000044	-1.0547118733938987e-014	0	10
10.00000000000011	20.000000000000128	0	10
-10.000000000000059	20.000000000000117	0	10
10.000000000000059	-20.000000000000117	0	10
-10.00000000000011	-20.000000000000128	0	10
[NumSegments] = 44
1	2	-1	0	0	0
3	2	-1	0	0	0
3	4	-1	0	0	0
6	7	-1	0	0	0
8	7	-1	0	0	0
8	9	-1	0	0	0
12	13	-1	0	0	0
14	13	-1	0	0	0
14	15	-1	0	0	0
17	18	-1	0	0	0
19	18	-1	0	0	0
19	20	-1	0	0	0
22	23	-1	0	0	0
24	23	-1	0	0	0
24	25	-1	0	0	0
27	28	-1	0	0	0
29	28	-1	0	0	0
29	30	-1	0	0	0
32	33	-1	0	0	0
34	33	-1	0	0	0
34	35	-1	0	0	0
37	38	-1	0	0	0
39	38	-1	0	0	0
39	40	-1	0	0	0
42	43	-1	0	0	0
44	43	-1	0	0	0
44	45	-1	0	0	0
47	48	-1	0	0	0
49	48	-1	0	0	0
49	50	-1	0	0	0
52	53	-1	0	0	0
54	53	-1	0	0	0
54	55	-1	0	0	0
56	57	-1	0	0	0
58	57	-1	0	0	0
58	59	-1	0	0	0
68	67	-1	0	0	10
65	68	-1	0	0	10
67	66	-1	0	0	10
65	64	-1	0	0	10
64	66	-1	0	0	10
69	70	-1	0	0	10
66	69	-1	0	0	10
70	65	-1	0	0	10
[NumArcSegments] = 32
0	1	27	1	0	0	0	1
4	5	30	1	0	0	0	1
6	0	27	1	0	0	0	1
10	9	30	1	0	0	0	1
11	12	27	1	0	0	0	1
15	16	30	1	0	0	0	1
17	11	27	1	0	0	0	1
5	20	30	1	0	0	0	1
21	22	27	1	0	0	0	1
25	26	30	1	0	0	0	1
27	21	27	1	0	0	0	1
16	30	30	1	0	0	0	1
31	32	27	1	0	0	0	1
35	36	30	1	0	0	0	1
37	31	27	1	0	0	0	1
26	40	30	1	0	0	0	1
41	42	27	1	0	0	0	1
45	46	30	1	0	0	0	1
47	41	27	1	0	0	0	1
36	50	30	1	0	0	0	1
51	52	27	1	0	0	0	1
55	10	30	1	0	0	0	1
56	51	27	1	0	0	0	1
46	59	30	1	0	0	0	1
1	17	10	1	0	0	0	1
12	27	10	1	0	0	0	1
22	37	10	1	0	0	0	1
32	47	10	1	0	0	0	1
42	56	10	1	0	0	0	1
52	6	10	1	0	0	0	1
60	61	180	1	1	0	0	1
61	60	180	1	1	0	0	1
[NumHoles] = 0
[NumBlockLabels] = 10
-41	23	3	-1	3	0	0	100	0
0	47	3	-1	1	0	0	-100	0
43	22	3	-1	2	0	0	100	0
42	-27	3	-1	3	0	0	-100	0
-2	-50	3	-1	1	0	0	100	0
-40	-23	3	-1	2	0	0	-100	0
-62	3	2	10	0	0	0	1	0
-34.799999999999997	0.69999999999999996	1	0.5	0	0	0	1	0
-0.10000000000000012	9.4000000000000465	4	-1	0	450	10	1	0
0.29999999999998905	-11.200000000000065	4	-1	0	450	10	1	0
