[Format]      =  4.0
[Frequency]   =  0
[Precision]   =  1e-008
[MinAngle]    =  30
[DoSmartMesh] =  1
[Depth]       =  50
[LengthUnits] =  millimeters
[ProblemType] =  planar
[Coordinates] =  cartesian
[ACSolver]    =  0
[PrevType]    =  0
[PrevSoln]    =  ""
[Comment]     =  "Add comments here."
[PointProps]   = 0
[BdryProps]   = 1
  <BeginBdry>
    <BdryName> = "Bound1"
    <BdryType> = 0
    <A_0> = 0
    <A_1> = 0
    <A_2> = 0
    <Phi> = 0
    <c0> = 0
    <c0i> = 0
    <c1> = 0
    <c1i> = 0
    <Mu_ssd> = 0
    <Sigma_ssd> = 0
    <innerangle> = 0
    <outerangle> = 0
  <EndBdry>
[BlockProps]  = 4
  <BeginBlock>
    <BlockName> = "Air"
    <Mu_x> = 1
    <Mu_y> = 1
    <H_c> = 0
    <H_cAngle> = 0
    <J_re> = 0
    <J_im> = 0
    <Sigma> = 0
    <d_lam> = 0
    <Phi_h> = 0
    <Phi_hx> = 0
    <Phi_hy> = 0
    <LamType> = 0
    <LamFill> = 1
    <NStrands> = 0
    <WireD> = 0
    <BHPoints> = 0
  <EndBlock>
  <BeginBlock>
    <BlockName> = "Pure Iron"
    <Mu_x> = 14872
    <Mu_y> = 14872
    <H_c> = 0
    <H_cAngle> = 0
    <J_re> = 0
    <J_im> = 0
    <Sigma> = 10.44
    <d_lam> = 0
    <Phi_h> = 0
    <Phi_hx> = 0
    <Phi_hy> = 0
    <LamType> = 0
    <LamFill> = 1
    <NStrands> = 0
    <WireD> = 0
    <BHPoints> = 0
  <EndBlock>
  <BeginBlock>
    <BlockName> = "Copper"
    <Mu_x> = 1
    <Mu_y> = 1
    <H_c> = 0
    <H_cAngle> = 0
    <J_re> = 0
    <J_im> = 0
    <Sigma> = 58
    <d_lam> = 0
    <Phi_h> = 0
    <Phi_hx> = 0
    <Phi_hy> = 0
    <LamType> = 0
    <LamFill> = 1
    <NStrands> = 0
    <WireD> = 0
    <BHPoints> = 0
  <EndBlock>
  <BeginBlock>
    <BlockName> = "NdFeB 37 MGOe"
    <Mu_x> = 1.048
    <Mu_y> = 1.048
    <H_c> = 950000
    <H_cAngle> = 0
    <J_re> = 0
    <J_im> = 0
    <Sigma> = 0.66700000000000004
    <d_lam> = 0
    <Phi_h> = 0
    <Phi_hx> = 0
    <Phi_hy> = 0
    <LamType> = 0
    <LamFill> = 1
    <NStrands> = 0
    <WireD> = 0
    <BHPoints> = 0
  <EndBlock>
[CircuitProps]  = 3
  <BeginCircuit>
    <CircuitName> = "C"
    <TotalAmps_re> = 0
    <TotalAmps_im> = 0
    <CircuitType> = 1
  <EndCircuit>
  <BeginCircuit>
    <CircuitName> = "A"
    <TotalAmps_re> = 0
    <TotalAmps_im> = 0
    <CircuitType> = 1
  <EndCircuit>
  <BeginCircuit>
    <CircuitName> = "B"
    <TotalAmps_re> = 0
    <TotalAmps_im> = 0
    <CircuitType> = 1
  <EndCircuit>
[NumPoints] = 69
0	0	0	10
35	0	0	0
31.185228346592876	15.889667490884136	0	0
31.685228346592876	15.889667490884136	0	0
35.185228346592879	11.889667490884136	0	0
55.185228346592879	11.889667490884136	0	0
51.528511525174103	29.749999999999996	0	0
31.185228346592876	-15.889667490884136	0	0
31.685228346592876	-15.889667490884136	0	0
35.185228346592879	-11.889667490884136	0	0
55.185228346592879	-11.889667490884136	0	0
51.528511525174103	-29.749999999999996	0	0
17.500000000000004	30.310889132455351	0	0
1.8317584685030397	34.952033716410085	0	0
2.0817584685030397	35.385046418302302	0	0
7.2958600836407967	36.416135331547842	0	0
17.2958600836408	53.736643407236613	0	0
1.4210854715202004e-014	59.5	0	0
29.353469878089843	19.062366225525949	0	0
29.603469878089843	19.495378927418166	0	0
27.88936826295209	24.526467840663706	0	0
37.88936826295209	41.846975916352477	0	0
-17.499999999999993	30.310889132455358	0	0
-29.353469878089836	19.062366225525956	0	0
-29.603469878089832	19.495378927418173	0	0
-27.889368262952082	24.526467840663713	0	0
-37.889368262952075	41.846975916352491	0	0
-51.528511525174089	29.750000000000018	0	0
-1.8317584685030308	34.952033716410085	0	0
-2.0817584685030273	35.385046418302309	0	0
-7.2958600836407861	36.416135331547849	0	0
-17.295860083640786	53.736643407236613	0	0
-35	1.4210854715202004e-014	0	0
-31.185228346592879	-15.889667490884127	0	0
-31.685228346592879	-15.889667490884124	0	0
-35.185228346592886	-11.889667490884126	0	0
-55.185228346592879	-11.889667490884111	0	0
-51.52851152517411	-29.749999999999972	0	0
-31.185228346592872	15.889667490884143	0	0
-31.685228346592872	15.88966749088415	0	0
-35.185228346592879	11.889667490884149	0	0
-55.185228346592872	11.889667490884149	0	0
-17.500000000000014	-30.310889132455344	0	0
-1.8317584685030504	-34.952033716410085	0	0
-2.0817584685030521	-35.385046418302302	0	0
-7.2958600836408092	-36.416135331547842	0	0
-17.295860083640822	-53.736643407236599	0	0
-3.907985046680551e-014	-59.5	0	0
-29.353469878089847	-19.062366225525942	0	0
-29.603469878089854	-19.495378927418152	0	0
-27.8893682629521	-24.526467840663699	0	0
-37.889368262952104	-41.846975916352463	0	0
17.499999999999979	-30.310889132455365	0	0
29.353469878089829	-19.062366225525967	0	0
29.603469878089825	-19.495378927418184	0	0
27.889368262952075	-24.526467840663724	0	0
37.889368262952047	-41.846975916352505	0	0
1.8317584685030219	-34.952033716410085	0	0
2.0817584685030113	-35.385046418302309	0	0
7.2958600836407737	-36.416135331547849	0	0
17.295860083640765	-53.736643407236627	0	0
75	0	0	0
-75	9.1848509936051487e-015	0	0
29.500000000000171	-2.375877272697835e-014	0	10
-29.50000000000016	2.5313084961453569e-014	0	10
34.500000000000071	-4.7961634663806763e-014	0	10
-34.500000000000114	5.0626169922907138e-014	0	10
-34.75	1.4210854715202004e-014	0	0
34.75	-1.8466502342239056e-014	0	0
[NumSegments] = 38
2	3	-1	0	0	0
4	3	-1	0	0	0
4	5	-1	0	0	0
7	8	-1	0	0	0
9	8	-1	0	0	0
9	10	-1	0	0	0
13	14	-1	0	0	0
15	14	-1	0	0	0
15	16	-1	0	0	0
18	19	-1	0	0	0
20	19	-1	0	0	0
20	21	-1	0	0	0
23	24	-1	0	0	0
25	24	-1	0	0	0
25	26	-1	0	0	0
28	29	-1	0	0	0
30	29	-1	0	0	0
30	31	-1	0	0	0
33	34	-1	0	0	0
35	34	-1	0	0	0
35	36	-1	0	0	0
38	39	-1	0	0	0
40	39	-1	0	0	0
40	41	-1	0	0	0
43	44	-1	0	0	0
45	44	-1	0	0	0
45	46	-1	0	0	0
48	49	-1	0	0	0
50	49	-1	0	0	0
50	51	-1	0	0	0
53	54	-1	0	0	0
55	54	-1	0	0	0
55	56	-1	0	0	0
57	58	-1	0	0	0
59	58	-1	0	0	0
59	60	-1	0	0	0
63	65	-1	0	0	10
64	66	-1	0	0	10
[NumArcSegments] = 36
1	2	27	1	0	0	0	1
5	6	30	1	0	0	0	1
7	1	27	1	0	0	0	1
11	10	30	1	0	0	0	1
12	13	27	1	0	0	0	1
16	17	30	1	0	0	0	1
18	12	27	1	0	0	0	1
6	21	30	1	0	0	0	1
22	23	27	1	0	0	0	1
26	27	30	1	0	0	0	1
28	22	27	1	0	0	0	1
17	31	30	1	0	0	0	1
32	33	27	1	0	0	0	1
36	37	30	1	0	0	0	1
38	32	27	1	0	0	0	1
27	41	30	1	0	0	0	1
42	43	27	1	0	0	0	1
46	47	30	1	0	0	0	1
48	42	27	1	0	0	0	1
37	51	30	1	0	0	0	1
52	53	27	1	0	0	0	1
56	11	30	1	0	0	0	1
57	52	27	1	0	0	0	1
47	60	30	1	0	0	0	1
2	18	10	1	0	0	0	1
13	28	10	1	0	0	0	1
23	38	10	1	0	0	0	1
33	48	10	1	0	0	0	1
43	57	10	1	0	0	0	1
53	7	10	1	0	0	0	1
61	62	180	1	1	0	0	1
62	61	180	1	1	0	0	1
63	64	180	1	0	0	10	1
64	63	180	1	0	0	10	1
65	66	180	1	0	0	10	1
66	65	180	1	0	0	10	1
[NumHoles] = 0
[NumBlockLabels] = 11
-41	23	3	-1	3	0	0	100	0
0	47	3	-1	1	0	0	-100	0
43	22	3	-1	2	0	0	100	0
42	-27	3	-1	3	0	0	-100	0
-2	-50	3	-1	1	0	0	100	0
-40	-23	3	-1	2	0	0	-100	0
-62	3	2	10	0	0	0	1	0
-0.63397459621556806	-3.098076211353336	2	10	0	0	10	1	0
1.0000000000000366	31.000000000000163	4	-1	0	810	10	1	0
-4.0634162701280729e-014	-32.000000000000256	4	-1	0	810	10	1	0
-34.799999999999997	0.69999999999999996	1	0.5	0	0	0	1	0
