[Format]      =  4.0
[Frequency]   =  0
[Precision]   =  1e-008
[MinAngle]    =  30
[DoSmartMesh] =  1
[Depth]       =  150
[LengthUnits] =  millimeters
[ProblemType] =  planar
[Coordinates] =  cartesian
[ACSolver]    =  0
[PrevType]    =  0
[PrevSoln]    =  ""
[Comment]     =  "Add comments here."
[PointProps]   = 0
[BdryProps]   = 1
  <BeginBdry>
    <BdryName> = "dirichlet"
    <BdryType> = 0
    <A_0> = 0
    <A_1> = 0
    <A_2> = 0
    <Phi> = 0
    <c0> = 0
    <c0i> = 0
    <c1> = 0
    <c1i> = 0
    <Mu_ssd> = 0
    <Sigma_ssd> = 0
    <innerangle> = 0
    <outerangle> = 0
  <EndBdry>
[BlockProps]  = 4
  <BeginBlock>
    <BlockName> = "Air"
    <Mu_x> = 1
    <Mu_y> = 1
    <H_c> = 0
    <H_cAngle> = 0
    <J_re> = 0
    <J_im> = 0
    <Sigma> = 0
    <d_lam> = 0
    <Phi_h> = 0
    <Phi_hx> = 0
    <Phi_hy> = 0
    <LamType> = 0
    <LamFill> = 1
    <NStrands> = 0
    <WireD> = 0
    <BHPoints> = 0
  <EndBlock>
  <BeginBlock>
    <BlockName> = "NdFeB 10 MGOe (Bonded)"
    <Mu_x> = 1
    <Mu_y> = 1
    <H_c> = -954929.66000000003
    <H_cAngle> = 0
    <J_re> = 0
    <J_im> = 0
    <Sigma> = 0
    <d_lam> = 0
    <Phi_h> = 0
    <Phi_hx> = 0
    <Phi_hy> = 0
    <LamType> = 0
    <LamFill> = 1
    <NStrands> = 0
    <WireD> = 0
    <BHPoints> = 0
  <EndBlock>
  <BeginBlock>
    <BlockName> = "Copper"
    <Mu_x> = 1
    <Mu_y> = 1
    <H_c> = 0
    <H_cAngle> = 0
    <J_re> = 0
    <J_im> = 0
    <Sigma> = 58
    <d_lam> = 0
    <Phi_h> = 0
    <Phi_hx> = 0
    <Phi_hy> = 0
    <LamType> = 0
    <LamFill> = 1
    <NStrands> = 0
    <WireD> = 0
    <BHPoints> = 0
  <EndBlock>
  <BeginBlock>
    <BlockName> = "Pure Iron"
    <Mu_x> = 50000
    <Mu_y> = 50000
    <H_c> = 0
    <H_cAngle> = 0
    <J_re> = 0
    <J_im> = 0
    <Sigma> = 10.44
    <d_lam> = 0
    <Phi_h> = 0
    <Phi_hx> = 0
    <Phi_hy> = 0
    <LamType> = 0
    <LamFill> = 1
    <NStrands> = 0
    <WireD> = 0
    <BHPoints> = 0
  <EndBlock>
[CircuitProps]  = 1
  <BeginCircuit>
    <CircuitName> = "S"
    <TotalAmps_re> = 10
    <TotalAmps_im> = 0
    <CircuitType> = 1
  <EndCircuit>
[NumPoints] = 27
0	0	0	10
44.000000000000099	-7.5495165674510645e-015	0	10
50	0	0	0
70	0	0	0
-44.000000000000071	1.3322676295501878e-015	0	10
-50	6.1232339957367661e-015	0	0
-70	8.572527594031473e-015	0	0
7.5495165674510645e-015	44.000000000000099	0	10
3.907985046680551e-014	49.000000000000377	0	10
-43.832566716037121	3.834852680897022	0	10
-43.832566716037128	-3.8348526808969368	0	10
43.832566716037121	3.8348526808969492	0	10
43.832566716037121	-3.834852680897022	0	10
-48.813540206495915	4.2706313946353323	0	10
48.813540206495929	4.2706313946352363	0	10
-48.813540206495929	-4.2706313946352505	0	10
48.813540206495915	-4.2706313946353323	0	10
2.6942229581241772e-015	49.5	0	0
-49.5	5.7252237860138761e-015	0	0
-8.7562246139035757e-015	-49.5	0	0
49.5	-1.1787225441793275e-014	0	0
49.000000000000377	-3.907985046680551e-014	0	10
-49.000000000000377	3.907985046680551e-014	0	10
-46.500000000000362	4.6629367034256575e-014	0	10
46.500000000000334	-5.3290705182007514e-014	0	10
55	0	0	0
-55	6.7355573953104426e-015	0	0
[NumSegments] = 8
1	24	-1	0	0	10
24	21	-1	0	0	10
4	23	-1	0	0	10
23	22	-1	0	0	10
13	9	-1	0	0	10
15	10	-1	0	0	10
11	14	-1	0	0	10
12	16	-1	0	0	10
[NumArcSegments] = 22
1	11	5	1	0	0	10	1
11	7	85	1	0	0	10	1
7	9	85	1	0	0	10	1
9	4	5.0000000000000009	1	0	0	10	1
4	10	5	1	0	0	10	1
10	12	170.00000000000026	1	0	0	10	1
12	1	5.0000000000000018	1	0	0	10	1
2	5	180	1	0	0	0	1
5	2	180	1	0	0	0	1
3	6	180	1	1	0	0	1
6	3	180	1	1	0	0	1
8	13	85	1	0	0	10	1
14	8	85	1	0	0	10	1
15	16	170	1	0	0	10	1
13	22	4.9999999999999947	1	0	0	10	1
16	21	4.9999999999999938	1	0	0	10	1
21	14	5.0000000000000062	1	0	0	10	1
22	15	5.0000000000000053	1	0	0	10	1
25	2	180	1	0	0	0	1
2	25	180	1	0	0	0	1
26	5	180	1	0	0	0	1
5	26	180	1	0	0	0	1
[NumHoles] = 0
[NumBlockLabels] = 11
-0.099999999999992192	4.8000000000000336	4	3	0	0	10	1	0
0.80000000000000449	45.900000000000318	2	2	0	450	10	1	0
3.799999999999975	-46.800000000000281	2	2	0	450	10	1	0
-49.399999999999999	-0.20000000000000001	1	0.5	0	0	0	1	0
-55.399999999999999	14.800000000000001	4	3	0	0	0	1	0
46.600000000000207	2.099999999999989	1	0.5	0	0	10	1	0
47.200000000000266	-1.5000000000000424	1	0.5	0	0	10	1	0
-46.400000000000389	2.0000000000000226	1	0.5	0	0	10	1	0
-45.800000000000225	-2.4999999999999871	1	0.5	0	0	10	1	0
-52.600000000000001	-0.29999999999999999	3	5	1	0	0	1	0
51.700000000000003	-0.40000000000000002	3	5	1	0	0	-1	0
