[Format]      =  4.0
[Frequency]   =  0
[Precision]   =  1e-008
[MinAngle]    =  30
[DoSmartMesh] =  0
[Depth]       =  1
[LengthUnits] =  millimeters
[ProblemType] =  planar
[Coordinates] =  cartesian
[ACSolver]    =  0
[PrevType]    =  0
[PrevSoln]    =  ""
[Comment]     =  "Add comments here."
[PointProps]   = 0
[BdryProps]   = 1
  <BeginBdry>
    <BdryName> = "dirilecht"
    <BdryType> = 0
    <A_0> = 0
    <A_1> = 0
    <A_2> = 0
    <Phi> = 0
    <c0> = 0
    <c0i> = 0
    <c1> = 0
    <c1i> = 0
    <Mu_ssd> = 0
    <Sigma_ssd> = 0
    <innerangle> = 0
    <outerangle> = 0
  <EndBdry>
[BlockProps]  = 4
  <BeginBlock>
    <BlockName> = "Air"
    <Mu_x> = 1
    <Mu_y> = 1
    <H_c> = 0
    <H_cAngle> = 0
    <J_re> = 0
    <J_im> = 0
    <Sigma> = 0
    <d_lam> = 0
    <Phi_h> = 0
    <Phi_hx> = 0
    <Phi_hy> = 0
    <LamType> = 0
    <LamFill> = 1
    <NStrands> = 0
    <WireD> = 0
    <BHPoints> = 0
  <EndBlock>
  <BeginBlock>
    <BlockName> = "NdFeB 10 MGOe (Bonded)"
    <Mu_x> = 1.2230000000000001
    <Mu_y> = 1.2230000000000001
    <H_c> = 445634
    <H_cAngle> = 0
    <J_re> = 0
    <J_im> = 0
    <Sigma> = 0
    <d_lam> = 0
    <Phi_h> = 0
    <Phi_hx> = 0
    <Phi_hy> = 0
    <LamType> = 0
    <LamFill> = 1
    <NStrands> = 0
    <WireD> = 0
    <BHPoints> = 0
  <EndBlock>
  <BeginBlock>
    <BlockName> = "Copper"
    <Mu_x> = 1
    <Mu_y> = 1
    <H_c> = 0
    <H_cAngle> = 0
    <J_re> = 0
    <J_im> = 0
    <Sigma> = 58
    <d_lam> = 0
    <Phi_h> = 0
    <Phi_hx> = 0
    <Phi_hy> = 0
    <LamType> = 0
    <LamFill> = 1
    <NStrands> = 0
    <WireD> = 0
    <BHPoints> = 0
  <EndBlock>
  <BeginBlock>
    <BlockName> = "Pure Iron"
    <Mu_x> = 14872
    <Mu_y> = 14872
    <H_c> = 0
    <H_cAngle> = 0
    <J_re> = 0
    <J_im> = 0
    <Sigma> = 10.44
    <d_lam> = 0
    <Phi_h> = 0
    <Phi_hx> = 0
    <Phi_hy> = 0
    <LamType> = 0
    <LamFill> = 1
    <NStrands> = 0
    <WireD> = 0
    <BHPoints> = 21
      0	0
      0.22706499999999999	13.898400000000001
      0.45412999999999998	27.796700000000001
      0.68119499999999999	42.397399999999998
      0.90825999999999996	61.415700000000001
      1.13533	82.382400000000004
      1.36239	144.66900000000001
      1.58935	897.75999999999999
      1.81236	4581.7399999999998
      2.01004	17736.200000000001
      2.1331600000000002	41339.300000000003
      2.1999900000000001	68321.800000000003
      2.2547899999999998	95685.5
      2.2999299999999998	123355
      2.3425099999999999	151083
      2.3787600000000002	178954
      2.4150100000000001	206825
      2.45126	234696
      2.4874999999999998	262568
      2.5237500000000002	290439
      2.5600000000000001	318310
  <EndBlock>
[CircuitProps]  = 4
  <BeginCircuit>
    <CircuitName> = "R"
    <TotalAmps_re> = 1
    <TotalAmps_im> = 0
    <CircuitType> = 1
  <EndCircuit>
  <BeginCircuit>
    <CircuitName> = "A"
    <TotalAmps_re> = 0
    <TotalAmps_im> = 0
    <CircuitType> = 1
  <EndCircuit>
  <BeginCircuit>
    <CircuitName> = "B"
    <TotalAmps_re> = 0
    <TotalAmps_im> = 0
    <CircuitType> = 1
  <EndCircuit>
  <BeginCircuit>
    <CircuitName> = "C"
    <TotalAmps_re> = 0
    <TotalAmps_im> = 0
    <CircuitType> = 1
  <EndCircuit>
[NumPoints] = 96
0	0	0	10
75	0	0	0
-75	0	0	0
40	0	0	5
-40	0	0	2
8.8595797365087492e-014	39.000000000000846	0	10
-8.8595797365087492e-014	-39.000000000000846	0	10
-38.40750236747693	-6.77227892901033	0	10
38.407502367476908	-6.7722789290105183	0	10
-38.407502367476908	6.7722789290105183	0	10
38.40750236747693	6.77227892901033	0	10
-39.5	0	0	0
39.5	-4.8373548566320455e-015	0	0
0	39.5	0	0
-4.8373548566320455e-015	-39.5	0	0
-10.000000000000231	-16.500000000000249	0	10
-12.5000000000003	-16.500000000000295	0	10
10.000000000000167	-16.500000000000281	0	10
12.500000000000163	-16.489234931944871	0	10
10.000000000000231	16.500000000000249	0	10
-10.000000000000167	16.500000000000281	0	10
-12.500000000000243	16.500000000000419	0	10
12.500000000000227	16.489234931944829	0	10
-35.33600000000073	-16.500000000000213	0	10
35.336000000000631	-16.500000000000362	0	10
-35.336000000000631	16.500000000000362	0	10
35.33600000000073	16.500000000000213	0	10
45	4.4999999999999947	0	5
45	-4.5000000000000053	0	5
39.84778792366982	3.4862297099063264	0	5
39.84778792366982	-3.4862297099063264	0	5
-39.84778792366982	-3.4862297099063264	0	2
-39.84778792366982	3.4862297099063264	0	2
10.000000000000217	21.500000000000281	0	10
-10.000000000000153	21.500000000000306	0	10
-10.000000000000217	-21.500000000000281	0	10
10.000000000000153	-21.500000000000306	0	10
38.637033051562732	10.35276180410083	0	1
-38.637033051562732	-10.35276180410083	0	2
37.587704831436334	13.680805733026748	0	1
39.392310120488325	6.9459271066772139	0	1
-37.587704831436334	-13.680805733026748	0	2
-39.392310120488325	-6.9459271066772139	0	2
-38.637033051562732	10.35276180410083	0	2
-39.392310120488325	6.9459271066772139	0	2
-37.587704831436334	13.680805733026748	0	2
38.637033051562732	-10.35276180410083	0	1
43.466662183008076	-11.646857029613438	0	1
39.392310120488325	-6.9459271066772139	0	1
37.587704831436334	-13.680805733026748	0	1
44.76088272803959	6.4585894285584748	0	5
39.657794454952416	5.2210476888020629	0	5
-39.657794454952416	-5.2210476888020629	0	2
44.76088272803959	-6.4585894285584855	0	5
39.657794454952416	-5.2210476888020629	0	5
-39.657794454952416	5.2210476888020629	0	2
20.000000000000004	34.641016151377542	0	5
18.602885682970033	41.22114317029974	0	5
26.397114317029981	36.72114317029974	0	5
16.904730469627982	36.252311481465995	0	5
22.943057454041845	32.766081771559669	0	5
16.787138846274537	41.993356252577634	0	5
15.307337294603595	36.955181300451464	0	5
27.973743881765067	35.534766824019151	0	5
24.350457160348828	31.734133611649401	0	5
-19.999999999999993	34.641016151377549	0	5
-26.39711431702996	36.72114317029974	0	5
-18.602885682970012	41.22114317029974	0	5
-22.943057454041835	32.766081771559676	0	5
-16.904730469627971	36.252311481466002	0	5
-27.973743881765046	35.534766824019158	0	5
-24.350457160348817	31.734133611649412	0	5
-16.787138846274516	41.993356252577634	0	5
-15.307337294603585	36.955181300451471	0	5
-45	-4.4999999999999822	0	5
-45	4.5000000000000142	0	5
-44.760882728039597	-6.4585894285584633	0	5
-44.76088272803959	6.458589428558497	0	5
-20.000000000000007	-34.641016151377542	0	5
-18.602885682970037	-41.22114317029974	0	5
-26.397114317029985	-36.72114317029974	0	5
-16.904730469627985	-36.252311481465995	0	5
-22.943057454041849	-32.766081771559669	0	5
-16.787138846274541	-41.993356252577634	0	5
-15.307337294603601	-36.955181300451464	0	5
-27.973743881765071	-35.534766824019151	0	5
-24.350457160348832	-31.734133611649398	0	5
19.999999999999989	-34.641016151377549	0	5
26.397114317029956	-36.72114317029974	0	5
18.602885682970008	-41.22114317029974	0	5
22.943057454041831	-32.766081771559676	0	5
16.904730469627967	-36.252311481466002	0	5
27.973743881765042	-35.534766824019158	0	5
24.350457160348814	-31.734133611649415	0	5
16.787138846274512	-41.993356252577634	0	5
15.307337294603579	-36.955181300451471	0	5
[NumSegments] = 36
20	15	-1	0	0	10
19	17	-1	0	0	10
21	16	-1	0	0	10
22	18	-1	0	0	10
16	15	-1	0	0	10
17	18	-1	0	0	10
22	19	-1	0	0	10
20	21	-1	0	0	10
29	27	-1	0	0	5
30	28	-1	0	0	5
34	20	-1	0	0	10
33	19	-1	0	0	10
15	35	-1	0	0	10
17	36	-1	0	0	10
54	53	-1	0	0	5
50	51	-1	0	0	5
59	57	-1	0	0	5
60	58	-1	0	0	5
64	63	-1	0	0	5
61	62	-1	0	0	5
68	66	-1	0	0	5
69	67	-1	0	0	5
73	72	-1	0	0	5
70	71	-1	0	0	5
31	74	-1	0	0	5
32	75	-1	0	0	5
55	77	-1	0	0	5
76	52	-1	0	0	5
81	79	-1	0	0	5
82	80	-1	0	0	5
86	85	-1	0	0	5
83	84	-1	0	0	5
90	88	-1	0	0	5
91	89	-1	0	0	5
95	94	-1	0	0	5
92	93	-1	0	0	5
[NumArcSegments] = 74
2	1	180	1	1	0	0	1
1	2	180	1	1	0	0	1
3	29	5	1	0	0	5	1
29	51	2.4999999999999982	1	0	0	5	1
51	40	2.5	1	0	0	0	1
40	37	4.9999999999999964	1	0	0	0	1
37	39	4.9999999999999964	1	0	0	0	1
39	64	32.499999999999943	1	0	0	0	1
64	60	2.4999999999999964	1	0	0	0	1
60	56	4.9999999999999885	1	0	0	0	1
56	59	4.9999999999999938	1	0	0	0	1
59	62	2.4999999999999929	1	0	0	0	1
62	73	44.999999999999922	1	0	0	0	1
73	69	2.4999999999999929	1	0	0	0	1
69	65	4.9999999999999911	1	0	0	0	1
65	68	4.9999999999999885	1	0	0	0	1
68	71	2.499999999999996	1	0	0	0	1
71	45	32.49999999999995	1	0	0	0	1
45	43	4.9999999999999964	1	0	0	0	1
43	44	4.9999999999999964	1	0	0	0	1
44	55	2.4999999999999982	1	0	0	0	1
55	32	2.4999999999999982	1	0	0	0	1
32	4	4.9999999999999973	1	0	0	2	1
4	31	4.9999999999999991	1	0	0	2	1
31	52	2.4999999999999982	1	0	0	0	1
52	42	2.5	1	0	0	0	1
42	38	4.9999999999999964	1	0	0	0	1
38	41	4.9999999999999964	1	0	0	0	1
41	86	32.499999999999943	1	0	0	0	1
86	82	2.5	1	0	0	0	1
82	78	4.999999999999992	1	0	0	0	1
78	81	4.9999999999999938	1	0	0	0	1
81	84	2.4999999999999929	1	0	0	0	1
84	95	44.999999999999901	1	0	0	0	1
95	91	2.4999999999999933	1	0	0	0	1
91	87	4.9999999999999885	1	0	0	0	1
87	90	4.9999999999999867	1	0	0	0	1
90	93	2.4999999999999929	1	0	0	0	1
93	49	32.49999999999995	1	0	0	0	1
49	46	4.9999999999999964	1	0	0	0	1
46	48	4.9999999999999964	1	0	0	0	1
48	54	2.4999999999999982	1	0	0	0	1
54	30	2.4999999999999982	1	0	0	5	1
30	3	5	1	0	0	5	1
23	6	64.965977102501085	1	0	0	10	1
6	24	64.965999999999994	1	0	0	10	1
5	25	64.965999999999994	1	0	0	10	1
26	5	64.965999999999994	1	0	0	10	1
25	9	10	1	0	0	10	1
10	26	10	1	0	0	10	1
24	8	10	1	0	0	10	1
7	23	10	1	0	0	10	1
34	9	50	1	0	0	10	1
10	33	50	1	0	0	10	1
36	8	50	1	0	0	10	1
7	35	50	1	0	0	10	1
28	27	10	1	0	0	5	1
50	27	2.5	1	0	0	5	1
28	53	2.5	1	0	0	5	1
58	57	10	1	0	0	5	1
61	57	2.5	1	0	0	5	1
58	63	2.5	1	0	0	5	1
67	66	10	1	0	0	5	1
70	66	2.5	1	0	0	5	1
67	72	2.5	1	0	0	5	1
75	74	10	1	0	0	5	1
76	74	2.5	1	0	0	5	1
75	77	2.5	1	0	0	5	1
80	79	10	1	0	0	5	1
83	79	2.5	1	0	0	5	1
80	85	2.5	1	0	0	5	1
89	88	10	1	0	0	5	1
92	88	2.5	1	0	0	5	1
89	94	2.5	1	0	0	5	1
[NumHoles] = 0
[NumBlockLabels] = 23
-11.500000000000192	0.50000000000002209	3	100	1	0	10	-100	0
11.000000000000213	-0.60000000000002274	3	100	1	0	10	100	0
-26.600000000000488	0.2000000000000387	1	5	0	0	10	1	0
-1.6999999999999789	12.000000000000233	4	50	0	0	10	1	0
60.700000000000003	-1.8	4	50	0	0	0	1	0
42.799999999999997	-0.20000000000000001	3	100	2	0	5	1	0
21.573205080756889	36.96588728197397	3	100	4	0	5	-1	0
-21.226794919243101	37.165887281973973	3	100	3	0	5	1	0
-42.799999999999997	0.20000000000000995	3	100	2	0	5	-1	0
-21.573205080756892	-36.96588728197397	3	100	4	0	5	1	0
21.226794919243098	-37.165887281973973	3	100	3	0	5	-1	0
42.799999999999997	-5	3	100	3	0	0	-1	0
42.299999999999997	4.9000000000000004	3	100	4	0	0	-1	0
25.800000000000001	34.5	3	100	2	0	0	1	0
17.199999999999999	38.899999999999999	3	100	3	0	0	1	0
-16.899999999999999	38.700000000000003	3	100	4	0	0	-1	0
-24.600000000000001	33.399999999999999	3	100	2	0	0	-1	0
-42.299999999999997	4.7999999999999998	3	100	3	0	0	1	0
-42.399999999999999	-4.5999999999999996	3	100	4	0	0	1	0
-25.5	-34.399999999999999	3	100	2	0	0	-1	0
-17	-39.299999999999997	3	100	3	0	0	-1	0
16.600000000000001	-39.200000000000003	3	100	4	0	0	1	0
25.699999999999999	-34.5	3	100	2	0	0	1	0
