[Format]      =  4.0
[Frequency]   =  0
[Precision]   =  1e-008
[MinAngle]    =  30
[DoSmartMesh] =  0
[Depth]       =  1
[LengthUnits] =  millimeters
[ProblemType] =  planar
[Coordinates] =  cartesian
[ACSolver]    =  0
[PrevType]    =  0
[PrevSoln]    =  ""
[Comment]     =  "Add comments here."
[PointProps]   = 0
[BdryProps]   = 1
  <BeginBdry>
    <BdryName> = "dirilecht"
    <BdryType> = 0
    <A_0> = 0
    <A_1> = 0
    <A_2> = 0
    <Phi> = 0
    <c0> = 0
    <c0i> = 0
    <c1> = 0
    <c1i> = 0
    <Mu_ssd> = 0
    <Sigma_ssd> = 0
    <innerangle> = 0
    <outerangle> = 0
  <EndBdry>
[BlockProps]  = 4
  <BeginBlock>
    <BlockName> = "Air"
    <Mu_x> = 1
    <Mu_y> = 1
    <H_c> = 0
    <H_cAngle> = 0
    <J_re> = 0
    <J_im> = 0
    <Sigma> = 0
    <d_lam> = 0
    <Phi_h> = 0
    <Phi_hx> = 0
    <Phi_hy> = 0
    <LamType> = 0
    <LamFill> = 1
    <NStrands> = 0
    <WireD> = 0
    <BHPoints> = 0
  <EndBlock>
  <BeginBlock>
    <BlockName> = "NdFeB 10 MGOe (Bonded)"
    <Mu_x> = 1.2230000000000001
    <Mu_y> = 1.2230000000000001
    <H_c> = 445634
    <H_cAngle> = 0
    <J_re> = 0
    <J_im> = 0
    <Sigma> = 0
    <d_lam> = 0
    <Phi_h> = 0
    <Phi_hx> = 0
    <Phi_hy> = 0
    <LamType> = 0
    <LamFill> = 1
    <NStrands> = 0
    <WireD> = 0
    <BHPoints> = 0
  <EndBlock>
  <BeginBlock>
    <BlockName> = "Copper"
    <Mu_x> = 1
    <Mu_y> = 1
    <H_c> = 0
    <H_cAngle> = 0
    <J_re> = 0
    <J_im> = 0
    <Sigma> = 58
    <d_lam> = 0
    <Phi_h> = 0
    <Phi_hx> = 0
    <Phi_hy> = 0
    <LamType> = 0
    <LamFill> = 1
    <NStrands> = 0
    <WireD> = 0
    <BHPoints> = 0
  <EndBlock>
  <BeginBlock>
    <BlockName> = "Pure Iron"
    <Mu_x> = 14872
    <Mu_y> = 14872
    <H_c> = 0
    <H_cAngle> = 0
    <J_re> = 0
    <J_im> = 0
    <Sigma> = 10.44
    <d_lam> = 0
    <Phi_h> = 0
    <Phi_hx> = 0
    <Phi_hy> = 0
    <LamType> = 0
    <LamFill> = 1
    <NStrands> = 0
    <WireD> = 0
    <BHPoints> = 21
      0	0
      0.22706499999999999	13.898400000000001
      0.45412999999999998	27.796700000000001
      0.68119499999999999	42.397399999999998
      0.90825999999999996	61.415700000000001
      1.13533	82.382400000000004
      1.36239	144.66900000000001
      1.58935	897.75999999999999
      1.81236	4581.7399999999998
      2.01004	17736.200000000001
      2.1331600000000002	41339.300000000003
      2.1999900000000001	68321.800000000003
      2.2547899999999998	95685.5
      2.2999299999999998	123355
      2.3425099999999999	151083
      2.3787600000000002	178954
      2.4150100000000001	206825
      2.45126	234696
      2.4874999999999998	262568
      2.5237500000000002	290439
      2.5600000000000001	318310
  <EndBlock>
[CircuitProps]  = 4
  <BeginCircuit>
    <CircuitName> = "R"
    <TotalAmps_re> = 1
    <TotalAmps_im> = 0
    <CircuitType> = 1
  <EndCircuit>
  <BeginCircuit>
    <CircuitName> = "A"
    <TotalAmps_re> = 0
    <TotalAmps_im> = 0
    <CircuitType> = 1
  <EndCircuit>
  <BeginCircuit>
    <CircuitName> = "B"
    <TotalAmps_re> = 0
    <TotalAmps_im> = 0
    <CircuitType> = 1
  <EndCircuit>
  <BeginCircuit>
    <CircuitName> = "C"
    <TotalAmps_re> = 0
    <TotalAmps_im> = 0
    <CircuitType> = 1
  <EndCircuit>
[NumPoints] = 116
0	0	0	10
75	0	0	0
-75	0	0	0
40	0	0	5
-40	0	0	2
8.8595797365087492e-014	39.000000000000846	0	10
-8.8595797365087492e-014	-39.000000000000846	0	10
-38.40750236747693	-6.77227892901033	0	10
38.407502367476908	-6.7722789290105183	0	10
-38.407502367476908	6.7722789290105183	0	10
38.40750236747693	6.77227892901033	0	10
-39.5	0	0	0
39.5	-4.8373548566320455e-015	0	0
0	39.5	0	0
-4.8373548566320455e-015	-39.5	0	0
-10.000000000000231	-16.500000000000249	0	10
-12.5000000000003	-16.500000000000295	0	10
10.000000000000167	-16.500000000000281	0	10
12.500000000000163	-16.489234931944871	0	10
10.000000000000231	16.500000000000249	0	10
-10.000000000000167	16.500000000000281	0	10
-12.500000000000243	16.500000000000419	0	10
12.500000000000227	16.489234931944829	0	10
-35.33600000000073	-16.500000000000213	0	10
35.336000000000631	-16.500000000000362	0	10
-35.336000000000631	16.500000000000362	0	10
35.33600000000073	16.500000000000213	0	10
45	4.4999999999999947	0	5
45	-4.5000000000000053	0	5
39.84778792366982	3.4862297099063264	0	5
39.84778792366982	-3.4862297099063264	0	5
-39.84778792366982	-3.4862297099063264	0	2
-39.84778792366982	3.4862297099063264	0	2
10.000000000000217	21.500000000000281	0	10
-10.000000000000153	21.500000000000306	0	10
-10.000000000000217	-21.500000000000281	0	10
10.000000000000153	-21.500000000000306	0	10
38.637033051562732	10.35276180410083	0	1
-38.637033051562732	-10.35276180410083	0	2
37.587704831436334	13.680805733026748	0	1
39.392310120488325	6.9459271066772139	0	1
-37.587704831436334	-13.680805733026748	0	2
-39.392310120488325	-6.9459271066772139	0	2
-38.637033051562732	10.35276180410083	0	2
-39.392310120488325	6.9459271066772139	0	2
-37.587704831436334	13.680805733026748	0	2
38.637033051562732	-10.35276180410083	0	1
39.392310120488325	-6.9459271066772139	0	1
37.587704831436334	-13.680805733026748	0	1
39.657794454952416	5.2210476888020629	0	5
-39.657794454952416	-5.2210476888020629	0	2
39.657794454952416	-5.2210476888020629	0	5
-39.657794454952416	5.2210476888020629	0	2
20.000000000000004	34.641016151377542	0	5
18.602885682970033	41.22114317029974	0	5
26.397114317029981	36.72114317029974	0	5
16.904730469627982	36.252311481465995	0	5
22.943057454041845	32.766081771559669	0	5
15.307337294603595	36.955181300451464	0	5
24.350457160348828	31.734133611649401	0	5
-19.999999999999993	34.641016151377549	0	5
-26.39711431702996	36.72114317029974	0	5
-18.602885682970012	41.22114317029974	0	5
-22.943057454041835	32.766081771559676	0	5
-16.904730469627971	36.252311481466002	0	5
-24.350457160348817	31.734133611649412	0	5
-15.307337294603585	36.955181300451471	0	5
-45	-4.4999999999999822	0	5
-45	4.5000000000000142	0	5
-20.000000000000007	-34.641016151377542	0	5
-18.602885682970037	-41.22114317029974	0	5
-26.397114317029985	-36.72114317029974	0	5
-16.904730469627985	-36.252311481465995	0	5
-22.943057454041849	-32.766081771559669	0	5
-15.307337294603601	-36.955181300451464	0	5
-24.350457160348832	-31.734133611649398	0	5
19.999999999999989	-34.641016151377549	0	5
26.397114317029956	-36.72114317029974	0	5
18.602885682970008	-41.22114317029974	0	5
22.943057454041831	-32.766081771559676	0	5
16.904730469627967	-36.252311481466002	0	5
24.350457160348814	-31.734133611649415	0	5
15.307337294603579	-36.955181300451471	0	5
13.680805733026755	37.587704831436326	0	5
-25.711504387461567	30.64177772475913	0	5
-13.680805733026761	-37.587704831436326	0	5
25.711504387461563	-30.641777724759134	0	5
25.711504387461577	30.641777724759116	0	5
-13.680805733026745	37.587704831436334	0	5
-25.711504387461581	-30.641777724759113	0	5
13.680805733026737	-37.587704831436334	0	5
21.300000000000001	39.600000000000001	0	0
44.76088272803959	6.4585894285584748	0	5
16.787138846274537	41.993356252577627	0	5
-27.973743881765046	35.534766824019151	0	5
-44.76088272803959	-6.4585894285584624	0	5
-16.787138846274541	-41.993356252577627	0	5
27.973743881765042	-35.534766824019151	0	5
44.43656057176409	8.4048845650574684	0	5
14.939436736666558	42.685632594482399	0	5
-29.497123835097526	34.280748029424927	0	5
-44.43656057176409	-8.404884565057456	0	5
-14.939436736666561	-42.685632594482399	0	5
29.497123835097522	-34.280748029424927	0	5
44.76088272803959	-6.4585894285584855	0	5
27.973743881765067	35.534766824019151	0	5
-16.787138846274516	41.993356252577627	0	5
-44.76088272803959	6.4585894285584944	0	5
-27.973743881765071	-35.534766824019151	0	5
16.787138846274512	-41.993356252577627	0	5
44.43656057176409	-8.4048845650574791	0	5
29.497123835097547	34.280748029424927	0	5
-14.939436736666536	42.685632594482399	0	5
-44.43656057176409	8.4048845650574879	0	5
-29.49712383509755	-34.280748029424927	0	5
14.939436736666533	-42.685632594482399	0	5
[NumSegments] = 48
20	15	-1	0	0	10
19	17	-1	0	0	10
21	16	-1	0	0	10
22	18	-1	0	0	10
16	15	-1	0	0	10
17	18	-1	0	0	10
22	19	-1	0	0	10
20	21	-1	0	0	10
29	27	-1	0	0	5
30	28	-1	0	0	5
34	20	-1	0	0	10
33	19	-1	0	0	10
15	35	-1	0	0	10
17	36	-1	0	0	10
56	54	-1	0	0	5
57	55	-1	0	0	5
63	61	-1	0	0	5
64	62	-1	0	0	5
31	67	-1	0	0	5
32	68	-1	0	0	5
72	70	-1	0	0	5
73	71	-1	0	0	5
79	77	-1	0	0	5
80	78	-1	0	0	5
105	59	-1	0	0	0
111	87	-1	0	0	0
58	93	-1	0	0	0
99	83	-1	0	0	0
66	106	-1	0	0	0
88	112	-1	0	0	0
84	100	-1	0	0	0
94	65	-1	0	0	0
51	104	-1	0	0	0
47	110	-1	0	0	0
40	98	-1	0	0	0
49	92	-1	0	0	0
82	109	-1	0	0	0
90	115	-1	0	0	0
81	97	-1	0	0	0
86	103	-1	0	0	0
74	96	-1	0	0	0
85	102	-1	0	0	0
75	108	-1	0	0	0
89	114	-1	0	0	0
42	101	-1	0	0	0
95	50	-1	0	0	0
52	107	-1	0	0	0
113	44	-1	0	0	0
[NumArcSegments] = 82
2	1	180	1	1	0	0	1
1	2	180	1	1	0	0	1
3	29	5	1	0	0	5	1
29	49	2.4999999999999982	1	0	0	5	1
49	40	2.5	1	0	0	0	1
40	37	4.9999999999999964	1	0	0	0	1
37	39	4.9999999999999964	1	0	0	0	1
39	87	29.999999999999954	1	0	0	0	1
87	59	2.4999999999999933	1	0	0	0	1
59	57	2.4999999999999964	1	0	0	0	1
57	53	4.9999999999999885	1	0	0	0	1
53	56	4.9999999999999938	1	0	0	0	1
56	58	2.4999999999999929	1	0	0	0	1
58	83	2.4999999999999933	1	0	0	0	1
83	88	39.999999999999929	1	0	0	0	1
88	66	2.4999999999999933	1	0	0	0	1
66	64	2.4999999999999929	1	0	0	0	1
64	60	4.9999999999999911	1	0	0	0	1
60	63	4.9999999999999885	1	0	0	0	1
63	65	2.499999999999996	1	0	0	0	1
65	84	2.4999999999999902	1	0	0	0	1
84	45	29.999999999999954	1	0	0	0	1
45	43	4.9999999999999964	1	0	0	0	1
43	44	4.9999999999999964	1	0	0	0	1
44	52	2.4999999999999982	1	0	0	0	1
52	32	2.4999999999999982	1	0	0	0	1
32	4	4.9999999999999973	1	0	0	2	1
4	31	4.9999999999999991	1	0	0	2	1
31	50	2.4999999999999982	1	0	0	0	1
50	42	2.5	1	0	0	0	1
42	38	4.9999999999999964	1	0	0	0	1
38	41	4.9999999999999964	1	0	0	0	1
41	89	29.999999999999947	1	0	0	0	1
89	75	2.5000000000000031	1	0	0	0	1
75	73	2.5	1	0	0	0	1
73	69	4.999999999999992	1	0	0	0	1
69	72	4.9999999999999938	1	0	0	0	1
72	74	2.4999999999999929	1	0	0	0	1
74	85	2.4999999999999933	1	0	0	0	1
85	90	39.999999999999893	1	0	0	0	1
90	82	2.4999999999999933	1	0	0	0	1
82	80	2.4999999999999933	1	0	0	0	1
80	76	4.9999999999999885	1	0	0	0	1
76	79	4.9999999999999867	1	0	0	0	1
79	81	2.4999999999999929	1	0	0	0	1
81	86	2.4999999999999902	1	0	0	0	1
86	48	29.999999999999961	1	0	0	0	1
48	46	4.9999999999999964	1	0	0	0	1
46	47	4.9999999999999964	1	0	0	0	1
47	51	2.4999999999999982	1	0	0	0	1
51	30	2.4999999999999982	1	0	0	5	1
30	3	5	1	0	0	5	1
23	6	64.965977102501085	1	0	0	10	1
6	24	64.965999999999994	1	0	0	10	1
5	25	64.965999999999994	1	0	0	10	1
26	5	64.965999999999994	1	0	0	10	1
25	9	10	1	0	0	10	1
10	26	10	1	0	0	10	1
24	8	10	1	0	0	10	1
7	23	10	1	0	0	10	1
34	9	50	1	0	0	10	1
10	33	50	1	0	0	10	1
36	8	50	1	0	0	10	1
7	35	50	1	0	0	10	1
28	27	10	1	0	0	5	1
55	54	10	1	0	0	5	1
62	61	10	1	0	0	5	1
68	67	10	1	0	0	5	1
71	70	10	1	0	0	5	1
78	77	10	1	0	0	5	1
94	100	2.5	1	0	0	0	1
95	101	2.5	1	0	0	0	1
96	102	2.5	1	0	0	0	1
97	103	2.5	1	0	0	0	1
92	98	2.5	1	0	0	0	1
93	99	2.5	1	0	0	0	1
106	112	2.5	1	0	0	0	1
105	111	2.5	1	0	0	0	1
104	110	2.5	1	0	0	0	1
109	115	2.5	1	0	0	0	1
108	114	2.5	1	0	0	0	1
107	113	2.5	1	0	0	0	1
[NumHoles] = 0
[NumBlockLabels] = 23
-11.500000000000192	0.50000000000002209	3	100	1	0	10	-100	0
11.000000000000213	-0.60000000000002274	3	100	1	0	10	100	0
-26.600000000000488	0.2000000000000387	1	5	0	0	10	1	0
-1.6999999999999789	12.000000000000233	4	50	0	0	10	1	0
60.700000000000003	-1.8	4	50	0	0	0	1	0
42.799999999999997	-0.20000000000000001	3	100	2	0	5	1	0
21.573205080756889	36.96588728197397	3	100	4	0	5	-1	0
-21.226794919243101	37.165887281973973	3	100	3	0	5	1	0
-42.799999999999997	0.20000000000000995	3	100	2	0	5	-1	0
-21.573205080756892	-36.96588728197397	3	100	4	0	5	1	0
21.226794919243098	-37.165887281973973	3	100	3	0	5	-1	0
-42	6.7000000000000002	3	100	2	0	0	-1	0
-41.399999999999999	-6.7999999999999998	3	100	2	0	0	-1	0
-26.800000000000001	-33	3	100	4	0	0	1	0
-15.199999999999999	-39.600000000000001	3	100	4	0	0	1	0
15.1	-39.5	3	100	3	0	0	-1	0
26.899999999999999	-33	3	100	3	0	0	-1	0
41.5	-6.9000000000000004	3	100	2	0	0	1	0
41.799999999999997	6.5999999999999996	3	100	2	0	0	1	0
26.899999999999999	33.299999999999997	3	100	4	0	0	-1	0
15.4	39.399999999999999	3	100	4	0	0	-1	0
-15	39.299999999999997	3	100	3	0	0	1	0
-26.600000000000001	32.600000000000001	3	100	3	0	0	1	0
