[Format]      =  4.0
[Frequency]   =  0
[Precision]   =  1e-008
[MinAngle]    =  30
[DoSmartMesh] =  0
[Depth]       =  150
[LengthUnits] =  millimeters
[ProblemType] =  planar
[Coordinates] =  cartesian
[ACSolver]    =  0
[PrevType]    =  0
[PrevSoln]    =  ""
[Comment]     =  "Add comments here."
[PointProps]   = 0
[BdryProps]   = 1
  <BeginBdry>
    <BdryName> = "dirichlet"
    <BdryType> = 0
    <A_0> = 0
    <A_1> = 0
    <A_2> = 0
    <Phi> = 0
    <c0> = 0
    <c0i> = 0
    <c1> = 0
    <c1i> = 0
    <Mu_ssd> = 0
    <Sigma_ssd> = 0
    <innerangle> = 0
    <outerangle> = 0
  <EndBdry>
[BlockProps]  = 4
  <BeginBlock>
    <BlockName> = "Air"
    <Mu_x> = 1
    <Mu_y> = 1
    <H_c> = 0
    <H_cAngle> = 0
    <J_re> = 0
    <J_im> = 0
    <Sigma> = 0
    <d_lam> = 0
    <Phi_h> = 0
    <Phi_hx> = 0
    <Phi_hy> = 0
    <LamType> = 0
    <LamFill> = 1
    <NStrands> = 0
    <WireD> = 0
    <BHPoints> = 0
  <EndBlock>
  <BeginBlock>
    <BlockName> = "NdFeB 10 MGOe (Bonded)"
    <Mu_x> = 1
    <Mu_y> = 1
    <H_c> = -954929.66000000003
    <H_cAngle> = 0
    <J_re> = 0
    <J_im> = 0
    <Sigma> = 0
    <d_lam> = 0
    <Phi_h> = 0
    <Phi_hx> = 0
    <Phi_hy> = 0
    <LamType> = 0
    <LamFill> = 1
    <NStrands> = 0
    <WireD> = 0
    <BHPoints> = 0
  <EndBlock>
  <BeginBlock>
    <BlockName> = "Copper"
    <Mu_x> = 1
    <Mu_y> = 1
    <H_c> = 0
    <H_cAngle> = 0
    <J_re> = 0
    <J_im> = 0
    <Sigma> = 58
    <d_lam> = 0
    <Phi_h> = 0
    <Phi_hx> = 0
    <Phi_hy> = 0
    <LamType> = 0
    <LamFill> = 1
    <NStrands> = 0
    <WireD> = 0
    <BHPoints> = 0
  <EndBlock>
  <BeginBlock>
    <BlockName> = "Pure Iron"
    <Mu_x> = 50000000
    <Mu_y> = 50000000
    <H_c> = 0
    <H_cAngle> = 0
    <J_re> = 0
    <J_im> = 0
    <Sigma> = 10.44
    <d_lam> = 0
    <Phi_h> = 0
    <Phi_hx> = 0
    <Phi_hy> = 0
    <LamType> = 0
    <LamFill> = 1
    <NStrands> = 0
    <WireD> = 0
    <BHPoints> = 0
  <EndBlock>
[CircuitProps]  = 1
  <BeginCircuit>
    <CircuitName> = "S"
    <TotalAmps_re> = 0
    <TotalAmps_im> = 0
    <CircuitType> = 1
  <EndCircuit>
[NumPoints] = 39
0	0	0	10
43.973196388840215	1.5355778549100427	0	10
50	0	0	0
70	0	0	0
-43.973196388840215	-1.5355778549100374	0	10
-50	6.1232339957367661e-015	0	0
-70	8.572527594031473e-015	0	0
-1.5355778549100401	43.973196388840215	0	10
-1.7100753384225449	48.970150523935693	0	10
-43.939699529201249	2.3027820746895342	0	10
-43.67203067221817	-5.3622511098264836	0	10
43.67203067221817	5.3622511098264889	0	10
43.939699529201249	-2.3027820746895289	0	10
-48.932847202974123	2.5644618559042494	0	10
48.634761430424781	5.9715978268522223	0	10
-48.634761430424781	-5.9715978268522267	0	10
48.932847202974123	-2.5644618559042538	0	10
2.6942229581241772e-015	49.5	0	0
-49.5	5.7252237860138761e-015	0	0
-8.7562246139035757e-015	-49.5	0	0
49.5	-1.1787225441793275e-014	0	0
48.970150523935693	1.7100753384225369	0	10
-48.970150523935693	-1.7100753384225418	0	10
-46.471673456387954	-1.6228265966662898	0	10
46.471673456387954	1.622826596666284	0	10
55	0	0	0
-55	6.7355573953104426e-015	0	0
49.80973490458728	4.3577871373829087	0	0
-49.80973490458728	-4.3577871373829025	0	0
49.80973490458728	-4.3577871373829087	0	0
-49.80973490458728	4.3577871373829149	0	0
55	5	0	0
-55	5.0000000000000071	0	0
55	-5	0	0
-55	-4.9999999999999929	0	0
46.153396051321479	5.6669244683393467	0	10
-46.43627336608769	2.4336219652968927	0	10
-49.311637555541402	4.3142092660090849	0	0
49.311637555541402	4.3142092660090681	0	0
[NumSegments] = 12
1	24	-1	0	0	10
24	21	-1	0	0	10
4	23	-1	0	0	10
23	22	-1	0	0	10
32	26	-1	0	0	0
26	34	-1	0	0	0
28	34	-1	0	0	0
32	30	-1	0	0	0
31	27	-1	0	0	0
33	25	-1	0	0	0
25	31	-1	0	0	0
29	33	-1	0	0	0
[NumArcSegments] = 22
1	11	5	1	0	0	10	1
11	7	85	1	0	0	10	1
7	9	85	1	0	0	10	1
9	4	5.0000000000000009	1	0	0	10	1
4	10	5	1	0	0	10	1
10	12	170.00000000000026	1	0	0	10	1
12	1	5.0000000000000018	1	0	0	10	1
2	27	5	1	0	0	0	1
27	30	170	1	0	0	0	1
30	5	5	1	0	0	0	1
5	28	4.9999999999999991	1	0	0	0	1
28	29	170	1	0	0	0	1
29	2	5	1	0	0	0	1
3	6	180	1	1	0	0	1
6	3	180	1	1	0	0	1
8	13	85	1	0	0	10	1
14	8	85	1	0	0	10	1
15	16	170	1	0	0	10	1
13	22	4.9999999999999947	1	0	0	10	1
16	21	4.9999999999999938	1	0	0	10	1
21	14	5.0000000000000062	1	0	0	10	1
22	15	5.0000000000000053	1	0	0	10	1
[NumHoles] = 0
[NumBlockLabels] = 7
-0.26745666687391423	4.7935860200214098	4	35	0	0	10	1	0
-0.80237423702951782	45.899958557538497	2	2	0	92	10	1	0
5.4309815883496091	-46.638872617024177	2	2	0	92	10	1	0
-49.399999999999999	-0.20000000000000001	1	5	0	0	0	1	0
-55.399999999999999	14.800000000000001	4	35	0	0	0	1	0
-52.600000000000001	-0.29999999999999999	3	20	1	0	0	1	0
51.700000000000003	-0.40000000000000002	3	20	1	0	0	-1	0
